VERS 180508
DBDT 0 85301 2.000E+01 2.500E+01
DBDT 1 2 1 0 0 1 0
MODE SEQ
NAME 85301
PFIL 0 0 0
LANG 0
UNIT MM X W X CM MR CPMM
ENPD 25
ENVD 20 1 0
GFAC 0 0
GCAT SCHOTT OHARA MISC CORNING INFRARED 
SDMA 0 1 0
OMMA 1 1
FTYP 0 0 1 3 0 0 0 1
ROPD 2
HYPR 0
PICB 1
XFLN 0
YFLN 0
FWGN 1
WAVM 1 0.48613269999999997 1
WAVM 2 0.58756180000000002 1
WAVM 3 0.65627250000000004 1
PWAV 2
GLRS 1 0
SURF 0
  FIMP 

  CURV 0.0
  DISZ INFINITY
  MEMA 0 0 0 0 1 ""
SURF 1
  COMM 85301
  STOP
  TYPE EVENASPH
  FIMP 

  CURV 8.472422265525712815E-02
  PARM 1 0
  PARM 2 1.3505741784149999e-05
  PARM 3 8.673593431946e-08
  PARM 4 -2.403414075604e-09
  PARM 5 2.9474233351769997e-11
  PARM 6 -1.8113640025039999e-13
  PARM 7 3.9193274399899999e-16
  PARM 8 0
  DISZ 15.00000012139
  GLAS N-PK51
  CONI -0.77950895824959998
  DIAM 12.5 1 0 0 1 ""
  MEMA 12.5 0 0 0 1 ""
  FLAP 0 12.5 0
SURF 2
  FIMP 

  CURV -6.191567085629372941E-02
  DISZ 8.1999999999999993
  GLAS S-NPH2
  DIAM 12.5 1 0 0 1 ""
  MEMA 12.5 0 0 0 1 ""
  FLAP 0 12.5 0
SURF 3
  TYPE EVENASPH
  FIMP 

  CURV -4.786521156423511475E-02
  PARM 1 0
  PARM 2 -5.5674930324000002e-05
  PARM 3 3.5905213188630002e-06
  PARM 4 -7.6211986117849993e-08
  PARM 5 1.023863639193e-09
  PARM 6 -8.3885343907960002e-12
  PARM 7 3.858496764412e-14
  PARM 8 -7.5951702970380004e-17
  DISZ 8.5670862670950001
  CONI 1.1662516575420001
  DIAM 12.5 1 0 0 1 ""
  MEMA 12.5 0 0 0 1 ""
  FLAP 0 12.5 0
SURF 4
  FIMP 

  CURV 0.0
  DISZ 0
  DIAM 0.32817914014310001 1 0 0 1 ""
  MEMA 0.32817914014310001 0 0 0 1 ""
